LTspice 24.1.1 for Windows
Circuit: C:\Users\matts\Documents\Custom SBC\Artificer A1\Artificer-A1-Single-Board-Computer\PCB\Simulations\PSU, voltage, polarity, and transient protection\Draft5.net
Start Time: Sun Apr  6 23:47:21 2025
solver = Normal
Maximum thread count: 8
tnom = 27
temp = 27
method = trap
.OP point found by inspection.
.step 
Total elapsed time: 0.223 seconds.

Files loaded:
C:\Users\matts\Documents\Custom SBC\Artificer A1\Artificer-A1-Single-Board-Computer\PCB\Simulations\PSU, voltage, polarity, and transient protection\Draft5.net
C:\Users\matts\AppData\Local\LTspice\lib\cmp\standard.dio
C:\Users\matts\AppData\Local\LTspice\lib\cmp\standard.bjt
C:\Users\matts\AppData\Local\LTspice\lib\sub\Contrib\Toshiba\LVMOS\SSM3J352F_G0_00_enc.lib

