LTspice 24.0.12 for Windows
Circuit: * C:\Users\MattSpot10\Documents\Custom SBC\Artificer A1\Artificer-A1-Single-Board-Computer\PCB\Simulations\PSU, voltage, polarity, and transient protection\Draft5.asc
Start Time: Wed Apr 16 16:33:53 2025
Warning: Multiple definitions of model "2scr375p" Type: BJT
Warning: Multiple definitions of model "bc857b" Type: BJT
Warning: Multiple definitions of model "bc847c" Type: BJT
Warning: Multiple definitions of model "bc847b" Type: BJT
solver = Normal
Maximum thread count: 4
tnom = 27
temp = 27
method = modified trap
Total elapsed time: 0.297 seconds.

